## karabiner.json is generated from:
    https://github.com/honeycut1/karabiner-windows-mode/tree/johnh#

Input file:  karabiner-windows-mode/jsonnet/karabiner-linux.jsonnet
Output file: karabiner-windows-mode/json/karabiner-linux.json

Run:
  jsonnet -- jsonnet/karabiner-linux.jsonnet > json/karabiner-linux.json  
